LTspice 26.0.1 for Windows
Circuit: C:\Users\nicbe\OneDrive\Documents\Projetos\BusinessCard\LT_Voltage_clamp.net
Start Time: Fri Jun  5 15:30:20 2026
solver = Normal
Maximum thread count: 16
tnom = 27
temp = 27
method = trap
Direct Newton iteration succeeded in finding operating point.
Total elapsed time: 0.222 seconds.

Files loaded:
C:\Users\nicbe\OneDrive\Documents\Projetos\BusinessCard\LT_Voltage_clamp.net
C:\Users\nicbe\AppData\Local\LTspice\lib\cmp\standard.dio

